Version 4
SHEET 1 5052 1040
WIRE -992 -528 -1008 -528
WIRE 1616 -496 -1008 -496
WIRE -928 -464 -1008 -464
WIRE -992 -416 -992 -528
WIRE -992 -416 -1008 -416
WIRE -288 -416 -992 -416
WIRE 96 -416 -288 -416
WIRE 656 -416 96 -416
WIRE 928 -416 656 -416
WIRE -1008 -384 -1008 -416
WIRE -1008 -272 -1008 -304
WIRE -1008 -272 -1040 -272
WIRE -928 -272 -928 -464
WIRE -928 -272 -1008 -272
WIRE -1040 -240 -1040 -272
WIRE 96 -96 96 -416
WIRE 96 128 96 -16
WIRE 944 128 96 128
WIRE 1280 128 944 128
WIRE 1616 240 1616 -496
WIRE 1616 240 624 240
WIRE 688 304 640 304
WIRE 928 304 928 -416
WIRE 928 304 912 304
WIRE -288 320 -288 -416
WIRE 96 352 96 128
WIRE 688 368 672 368
WIRE 944 368 944 128
WIRE 944 368 912 368
WIRE 1616 400 1616 240
WIRE 624 432 624 240
WIRE 688 432 624 432
WIRE 928 432 912 432
WIRE 656 496 656 -416
WIRE 688 496 656 496
WIRE 1280 496 1280 192
WIRE 1280 496 912 496
WIRE 96 544 96 432
WIRE 672 544 672 368
WIRE 672 544 96 544
WIRE 928 544 928 432
WIRE 928 544 672 544
WIRE 1280 592 1280 496
WIRE 96 736 96 544
WIRE 1616 864 1616 464
WIRE 1808 864 1616 864
WIRE -1008 960 -1008 -272
WIRE -288 960 -288 384
WIRE -288 960 -1008 960
WIRE 96 960 96 800
WIRE 96 960 -288 960
WIRE 640 960 640 304
WIRE 640 960 96 960
WIRE 1280 960 1280 672
WIRE 1280 960 640 960
WIRE 1680 960 1680 944
WIRE 1680 960 1280 960
WIRE 1808 960 1680 960
FLAG -1040 -240 0
FLAG 1808 864 SPEAKER_IN
FLAG -1008 -496 OUT
FLAG -1008 -528 VCC
FLAG -1008 -464 GRD
FLAG 1808 960 SPEAKER_OUT
SYMBOL res 80 -112 R0
SYMATTR InstName R909R511
SYMATTR Value 160
SYMBOL cap 80 736 R0
SYMATTR InstName C0P01U
SYMATTR Value 0.01µ
SYMBOL Misc\\NE555 800 400 R0
SYMATTR InstName U1
SYMBOL cap 1264 128 R0
SYMATTR InstName C100U1
SYMATTR Value 100µ
SYMBOL res 1264 576 R0
SYMATTR InstName R5P6
SYMATTR Value 5.6K
SYMBOL cap 1600 400 R0
SYMATTR InstName C100U2
SYMATTR Value 100µ
SYMBOL cap -304 320 R0
SYMATTR InstName C10U
SYMATTR Value 10µ
SYMBOL res 80 336 R0
SYMATTR InstName R15K
SYMATTR Value 15K
SYMBOL voltage -1008 -400 R0
WINDOW 123 0 0 Left 0
WINDOW 39 0 0 Left 0
SYMATTR InstName IO
SYMATTR Value 9
TEXT -1072 1024 Left 2 !.tran 0 1 0.01 0.01
